Version 4
SHEET 1 1492 756
WIRE 1488 -80 -176 -80
WIRE -176 96 -176 -80
WIRE -96 96 -176 96
WIRE 96 96 64 96
WIRE 272 96 256 96
WIRE 288 96 272 96
WIRE 304 96 288 96
WIRE 496 96 464 96
WIRE 672 96 656 96
WIRE 704 96 672 96
WIRE 896 96 864 96
WIRE 1072 96 1056 96
WIRE 1088 96 1072 96
WIRE 1280 96 1248 96
WIRE 1456 96 1440 96
WIRE -96 144 -176 144
WIRE 272 144 272 96
WIRE 288 144 288 96
WIRE 304 144 288 144
WIRE 672 144 672 96
WIRE 704 144 688 144
WIRE 1072 144 1072 96
WIRE 1456 144 1456 96
WIRE 1488 144 1488 -80
WIRE 1488 144 1456 144
WIRE 272 224 272 144
WIRE 272 224 176 224
WIRE -176 272 -176 144
WIRE 288 272 288 144
WIRE 288 272 -176 272
WIRE 688 272 688 144
WIRE 688 272 288 272
WIRE 1088 272 1088 192
WIRE 1088 272 688 272
WIRE 288 304 288 272
WIRE 400 320 400 304
WIRE 96 384 96 192
WIRE 96 384 80 384
WIRE 496 384 496 192
WIRE 496 384 96 384
WIRE 896 384 896 192
WIRE 896 384 496 384
WIRE 912 384 896 384
WIRE 1280 384 1280 192
WIRE 1280 384 912 384
WIRE 912 400 912 384
WIRE 672 448 672 144
WIRE 672 448 288 448
WIRE 1456 512 1456 144
WIRE 1456 512 432 512
WIRE 432 544 432 512
WIRE 464 544 432 544
WIRE 608 560 576 560
WIRE 288 576 288 448
WIRE 464 576 288 576
WIRE 608 608 608 560
WIRE 640 608 608 608
WIRE 640 640 608 640
WIRE 464 656 288 656
WIRE 608 672 608 640
WIRE 608 672 576 672
WIRE 176 688 176 224
WIRE 464 688 176 688
WIRE 288 752 288 656
WIRE 1072 752 1072 144
WIRE 1072 752 288 752
FLAG 912 480 0
FLAG 400 400 0
SYMBOL Digital\\dflop -16 48 R0
SYMATTR InstName A1
SYMBOL Digital\\dflop 176 48 R0
SYMATTR InstName A2
SYMBOL Digital\\dflop 384 48 R0
SYMATTR InstName A3
SYMBOL Digital\\dflop 576 48 R0
SYMATTR InstName A4
SYMBOL Digital\\dflop 784 48 R0
SYMATTR InstName A5
SYMBOL Digital\\dflop 976 48 R0
SYMATTR InstName A6
SYMBOL Digital\\dflop 1168 48 R0
SYMATTR InstName A7
SYMBOL Digital\\dflop 1360 48 R0
SYMATTR InstName A8
SYMBOL voltage 912 384 R0
WINDOW 123 0 0 Left 0
WINDOW 39 0 0 Left 0
SYMATTR InstName V1
SYMATTR Value PULSE(0 5 0 0 0 5 1u)
SYMBOL 74HC\\74hc86 512 496 R0
SYMATTR InstName U1
SYMBOL 74HC\\74hc86 512 608 R0
SYMATTR InstName U2
SYMBOL 74HC\\74hc86 688 560 R0
SYMATTR InstName U3
SYMBOL 74HC\\74hc04 336 240 R0
SYMATTR InstName U4
SYMBOL voltage 400 304 R0
WINDOW 123 0 0 Left 0
WINDOW 39 0 0 Left 0
SYMATTR InstName V2
SYMATTR Value PULSE(0 5 0 0 0 5 1u)
