Version 4
SHEET 1 1844 872
WIRE 1840 -128 -192 -128
WIRE 16 -32 -112 -32
WIRE 256 -32 16 -32
WIRE 496 -32 256 -32
WIRE 736 -32 496 -32
WIRE 960 -32 736 -32
WIRE 1184 -32 960 -32
WIRE 1408 -32 1184 -32
WIRE 1648 -32 1408 -32
WIRE 16 48 16 -32
WIRE 256 48 256 -32
WIRE 496 48 496 -32
WIRE 736 48 736 -32
WIRE 960 48 960 -32
WIRE 1184 48 1184 -32
WIRE 1408 48 1408 -32
WIRE 1648 48 1648 -32
WIRE -192 128 -192 -128
WIRE -80 128 -192 128
WIRE 160 128 112 128
WIRE 384 128 352 128
WIRE 400 128 384 128
WIRE 640 128 592 128
WIRE 848 128 832 128
WIRE 864 128 848 128
WIRE 1088 128 1056 128
WIRE 1296 128 1280 128
WIRE 1312 128 1296 128
WIRE 1552 128 1504 128
WIRE 1840 192 1840 -128
WIRE 1840 192 1744 192
WIRE -112 336 -112 -32
WIRE 16 336 16 272
WIRE 16 336 -112 336
WIRE 256 336 256 272
WIRE 256 336 16 336
WIRE 496 336 496 272
WIRE 496 336 256 336
WIRE 736 336 736 272
WIRE 736 336 496 336
WIRE 960 336 960 272
WIRE 960 336 736 336
WIRE 1184 336 1184 272
WIRE 1184 336 960 336
WIRE 1408 336 1408 272
WIRE 1408 336 1184 336
WIRE 1648 336 1648 272
WIRE 1648 336 1408 336
WIRE 848 352 848 128
WIRE 848 352 496 352
WIRE -80 384 -80 160
WIRE -80 384 -96 384
WIRE 304 384 -80 384
WIRE 400 384 400 160
WIRE 400 384 304 384
WIRE 832 384 400 384
WIRE 864 384 864 160
WIRE 864 384 832 384
WIRE 1312 384 1312 160
WIRE 1312 384 864 384
WIRE 832 464 832 384
WIRE 160 528 160 160
WIRE 640 528 640 160
WIRE 640 528 160 528
WIRE 944 528 944 464
WIRE 944 528 640 528
WIRE 1088 528 1088 160
WIRE 1088 528 944 528
WIRE 1552 528 1552 160
WIRE 1552 528 1088 528
WIRE 1744 576 1744 192
WIRE 1744 576 560 576
WIRE 1296 608 1296 128
WIRE 1296 608 368 608
WIRE 560 640 560 576
WIRE 608 640 560 640
WIRE 496 672 496 352
WIRE 608 672 496 672
WIRE 720 704 720 656
WIRE 784 704 720 704
WIRE 784 736 736 736
WIRE 368 800 368 608
WIRE 624 800 368 800
WIRE 736 816 736 736
WIRE 384 832 384 128
WIRE 624 832 384 832
FLAG 304 464 0
FLAG -112 416 0
FLAG 896 720 X
IOPIN 896 720 Out
SYMBOL 74HC\\74hc74 16 48 R0
SYMATTR InstName U1
SYMBOL 74HC\\74hc74 256 48 R0
SYMATTR InstName U2
SYMBOL 74HC\\74hc74 496 48 R0
SYMATTR InstName U3
SYMBOL 74HC\\74hc74 736 48 R0
SYMATTR InstName U4
SYMBOL 74HC\\74hc74 960 48 R0
SYMATTR InstName U5
SYMBOL 74HC\\74hc74 1184 48 R0
SYMATTR InstName U6
SYMBOL 74HC\\74hc74 1408 48 R0
SYMATTR InstName U7
SYMBOL 74HC\\74hc74 1648 48 R0
SYMATTR InstName U8
SYMBOL voltage 304 368 R0
WINDOW 123 0 0 Left 0
WINDOW 39 0 0 Left 0
SYMATTR InstName V1
SYMATTR Value PULSE(0 5 0 0 0 0.5u 1u 100)
SYMBOL 74HC\\74hc04 880 400 R0
SYMATTR InstName U9
SYMBOL 74HC\\74hc86 656 592 R0
SYMATTR InstName U10
SYMBOL 74HC\\74hc86 672 752 R0
SYMATTR InstName U11
SYMBOL 74HC\\74hc86 832 656 R0
SYMATTR InstName U12
SYMBOL voltage -112 320 R0
WINDOW 123 0 0 Left 0
WINDOW 39 0 0 Left 0
SYMATTR InstName V2
SYMATTR Value 5
TEXT -56 736 Left 2 !.include 74hc.lib
