Version 4
SHEET 1 1396 840
WIRE 512 -208 -240 -208
WIRE 112 -160 16 -160
WIRE 16 -48 16 -160
WIRE 112 -48 16 -48
WIRE 368 -48 112 -48
WIRE 32 -32 -112 -32
WIRE 32 16 32 -32
WIRE 64 16 32 16
WIRE 192 16 192 0
WIRE 192 16 64 16
WIRE 304 16 304 0
WIRE 320 16 304 16
WIRE 320 112 304 112
WIRE 464 128 368 128
WIRE 528 128 464 128
WIRE 672 128 528 128
WIRE -240 144 -240 -208
WIRE 64 144 64 112
WIRE 64 144 -240 144
WIRE 208 144 112 144
WIRE 272 144 208 144
WIRE 304 144 304 112
WIRE 304 144 272 144
WIRE 64 208 64 144
WIRE 304 208 304 144
WIRE 320 208 304 208
WIRE 32 288 32 16
WIRE 64 288 32 288
WIRE 288 288 288 0
WIRE 320 288 288 288
WIRE 464 304 464 128
WIRE 480 304 464 304
WIRE 208 320 208 144
WIRE 272 352 272 144
WIRE 528 352 528 128
WIRE 320 368 320 320
WIRE 320 368 272 368
WIRE 16 400 16 -48
WIRE 112 400 16 400
WIRE 368 400 112 400
WIRE 592 432 592 304
WIRE 592 432 480 432
WIRE 32 464 32 288
WIRE 64 464 32 464
WIRE 288 464 288 288
WIRE 320 464 288 464
WIRE 416 464 416 352
WIRE 448 464 416 464
WIRE 320 512 304 512
WIRE 160 528 160 352
WIRE 224 528 160 528
WIRE 224 576 224 528
WIRE 224 576 112 576
WIRE 272 576 272 368
WIRE 272 576 224 576
WIRE 320 576 272 576
WIRE 448 576 448 464
WIRE 448 576 368 576
WIRE 480 576 480 432
WIRE 480 576 448 576
WIRE 512 576 512 -208
WIRE 512 576 480 576
WIRE 64 592 64 560
WIRE 64 592 -48 592
WIRE 64 656 64 592
WIRE 320 656 320 576
WIRE 32 736 32 464
WIRE 64 736 32 736
WIRE 288 736 288 464
WIRE 320 736 288 736
WIRE 336 736 320 736
WIRE -48 816 -48 592
WIRE 672 816 672 128
WIRE 672 816 -48 816
FLAG 112 -80 0
FLAG 112 304 0
FLAG 368 304 0
FLAG 112 752 0
FLAG 368 752 0
FLAG -112 48 0
FLAG 64 -32 0
FLAG 320 -32 0
FLAG 320 240 0
FLAG 64 240 0
FLAG 64 416 0
FLAG 320 416 0
FLAG 320 688 0
FLAG 64 688 0
SYMBOL pmos 64 32 R0
SYMATTR InstName M1
SYMBOL pmos 320 32 R0
SYMATTR InstName M2
SYMBOL pmos 320 128 R0
SYMATTR InstName M3
SYMBOL pmos 320 480 R0
SYMATTR InstName M4
SYMBOL pmos 320 576 R0
SYMATTR InstName M5
SYMBOL pmos 64 480 R0
SYMATTR InstName M6
SYMBOL nmos 64 128 R0
SYMATTR InstName M7
SYMBOL nmos 64 576 R0
SYMATTR InstName M8
SYMBOL sw 112 208 R0
SYMATTR InstName S1
SYMATTR Value Switch3
SYMBOL sw 368 208 R0
SYMATTR InstName S2
SYMATTR Value Switch4
SYMBOL sw 112 656 R0
SYMATTR InstName S3
SYMATTR Value Switch7
SYMBOL sw 368 656 R0
SYMATTR InstName S4
SYMATTR Value Switch8
SYMBOL sw 112 384 R0
SYMATTR InstName S5
SYMATTR Value Switch5
SYMBOL sw 368 384 R0
SYMATTR InstName S6
SYMATTR Value Switch6
SYMBOL sw 112 -64 R0
SYMATTR InstName S7
SYMATTR Value Switch1
SYMBOL sw 368 -64 R0
SYMATTR InstName S8
SYMATTR Value Switch2
SYMBOL voltage 112 -176 R0
WINDOW 123 0 0 Left 0
WINDOW 39 0 0 Left 0
SYMATTR InstName V1
SYMATTR Value 5
SYMBOL voltage -112 -48 R0
WINDOW 123 0 0 Left 0
WINDOW 39 0 0 Left 0
SYMATTR InstName V2
SYMATTR Value PULSE(0 5 0 0 0 0.5u 1u 20)
SYMBOL 74HC\\74hc04 464 288 R0
SYMATTR InstName U1
SYMBOL 74HC\\74hc04 528 240 R0
SYMATTR InstName U2
SYMBOL 74HC\\74hc04 208 288 R0
SYMATTR InstName U3
SYMBOL 74HC\\74hc04 256 256 R0
SYMATTR InstName U4
SYMBOL 74HC\\74hc04 240 -64 R0
SYMATTR InstName U5
TEXT 696 16 Left 2 !.model Switch1 SW(Ron=1 Roff=1Meg Vt=.5 Vh=.4)
TEXT 704 48 Left 2 !.model Switch3  SW(Ron=1 Roff=1 Meg Vt=.5 Vh=-.4)
TEXT 712 80 Left 2 !.model Switch2  SW(Ron=1 Roff=1 Meg Vt=.5 Vh=-.4)
TEXT 712 120 Left 2 !.model Switch4  SW(Ron=1 Roff=1 Meg Vt=.5 Vh=-.4)
TEXT 728 152 Left 2 !.model Switch5  SW(Ron=1 Roff=1 Meg Vt=.5 Vh=-.4)
TEXT 736 184 Left 2 !.model Switch6  SW(Ron=1 Roff=1 Meg Vt=.5 Vh=-.4)
TEXT 752 224 Left 2 !.model Switch7 SW(Ron=1 Roff=1 Meg Vt=.5 Vh=-.4)
TEXT 760 256 Left 2 !.model Switch8  SW(Ron=1 Roff=1 Meg Vt=.5 Vh=-.4)
TEXT 776 288 Left 2 !.include 74hc.lib
TEXT -242 822 Left 2 !.tran 0 25u 0 0.5u
