Version 4
SHEET 1 880 680
WIRE 80 80 -64 80
WIRE 80 96 80 80
WIRE 240 112 192 112
WIRE 80 144 80 128
WIRE 80 144 16 144
WIRE 240 144 240 112
WIRE 272 144 240 144
WIRE 272 176 240 176
WIRE 80 224 64 224
WIRE 240 240 240 176
WIRE 240 240 192 240
WIRE 64 256 64 224
WIRE 64 256 0 256
WIRE 80 256 64 256
FLAG -64 160 0
FLAG 16 224 0
FLAG 0 336 0
FLAG 384 160 c
SYMBOL 74HC\\74hc00 128 48 R0
SYMATTR InstName U1
SYMBOL 74HC\\74hc00 128 176 R0
SYMATTR InstName U2
SYMBOL 74HC\\74hc00 320 96 R0
SYMATTR InstName U3
SYMBOL voltage -64 64 R0
WINDOW 123 0 0 Left 0
WINDOW 39 0 0 Left 0
SYMATTR InstName V1
SYMATTR Value 5
SYMBOL voltage 16 128 R0
WINDOW 123 0 0 Left 0
WINDOW 39 0 0 Left 0
SYMATTR InstName V2
SYMATTR Value PULSE(0 5 0 0 0 2m 4m 10)
SYMBOL voltage 0 240 R0
WINDOW 123 0 0 Left 0
WINDOW 39 0 0 Left 0
SYMATTR InstName V3
SYMATTR Value PULSE(0 5 0 0 0 4m 6m 12)
TEXT 200 72 Left 2 !.include 74hc.lib
TEXT -98 360 Left 2 !.tran 0 40m 0 0.1
