Version 4
SHEET 1 880 680
WIRE 80 0 -32 0
WIRE 128 0 80 0
WIRE 96 32 48 32
WIRE 128 32 96 32
WIRE 80 112 80 0
WIRE 128 112 80 112
WIRE 96 144 96 32
WIRE 128 144 96 144
FLAG 208 128 c
SYMBOL 74HC\\74hc86 176 -48 R0
SYMATTR InstName U1
SYMBOL 74HC\\74hc08 176 64 R0
SYMATTR InstName U2
SYMBOL voltage -32 -16 R0
WINDOW 123 0 0 Left 0
WINDOW 39 0 0 Left 0
SYMATTR InstName A
SYMATTR Value PULSE(0 5 0.2m 0 0 2m 4m 5)
SYMBOL voltage 48 16 R0
WINDOW 123 0 0 Left 0
WINDOW 39 0 0 Left 0
SYMATTR InstName B
SYMATTR Value PULSE(0 5 0.2m 0 0 5m 10m 2)
TEXT 200 -48 Left 2 !.include 74hc.lib
TEXT -66 188 Left 2 !.tran 5
