Version 4
SHEET 1 880 680
WIRE 160 80 48 80
WIRE 160 144 160 80
WIRE 160 192 160 176
WIRE 160 192 48 192
FLAG 48 160 0
FLAG 48 272 0
SYMBOL 74HC\\74hc08 208 96 R0
SYMATTR InstName U1
SYMBOL voltage 48 64 R0
WINDOW 123 0 0 Left 0
WINDOW 39 0 0 Left 0
SYMATTR InstName V1
SYMATTR Value PULSE(0 25 0.5m 0 0 2m 4m 8m)
SYMBOL voltage 48 176 R0
WINDOW 123 0 0 Left 0
WINDOW 39 0 0 Left 0
SYMATTR InstName V2
SYMATTR Value PULSE(0 5 1m 0 0 5m 10m 5)
TEXT 14 296 Left 2 !.tran 5s
TEXT 184 56 Left 2 !.include 74hc.lib
