Version 4
SHEET 1 880 680
SYMBOL res 96 272 R0
SYMATTR InstName R1
SYMBOL cap 16 288 R0
SYMATTR InstName C1
